--Link1--
%chk=molecule
#HF/6-31G* SCF=tight Test Pop=MK iop(6/33=2) iop(6/42=6) opt
# iop(6/50=1)

remark line goes here

0   1
    O   -2.6970000000       -2.2420000000       -0.8490000000     
    N   -2.2940000000        1.1680000000        0.4250000000     
    C   -2.1370000000        0.1520000000       -0.6250000000     
    C   -0.7150000000        0.2140000000       -1.1870000000     
    C    0.2910000000        0.0090000000       -0.0530000000     
    C    1.7070000000       -0.0320000000       -0.6290000000     
    C    2.7140000000       -0.2370000000        0.5050000000     
    N    4.0740000000       -0.2770000000       -0.0480000000     
    C    4.4490000000        1.0250000000       -0.6170000000     
    C    5.0430000000       -0.7070000000        0.9680000000     
    C   -2.3870000000       -1.2150000000       -0.0420000000     
    O   -2.3090000000       -1.3870000000        1.1520000000     
    C   -1.9060000000        2.4970000000       -0.0670000000     
    C   -3.6680000000        1.1790000000        0.9450000000     
    H   -2.8530000000        0.3420000000       -1.4240000000     
    H   -0.5860000000       -0.5680000000       -1.9340000000     
    H   -0.5490000000        1.1880000000       -1.6480000000     
    H    0.2110000000        0.8320000000        0.6570000000     
    H    0.0780000000       -0.9310000000        0.4560000000     
    H    1.7870000000       -0.8550000000       -1.3390000000     
    H    1.9200000000        0.9080000000       -1.1380000000     
    H    2.6340000000        0.5860000000        1.2150000000     
    H    2.5010000000       -1.1780000000        1.0140000000     
    H    4.4110000000        1.7860000000        0.1620000000     
    H    5.4600000000        0.9670000000       -1.0190000000     
    H    3.7540000000        1.2860000000       -1.4150000000     
    H    4.7810000000       -1.7040000000        1.3220000000     
    H    6.0420000000       -0.7270000000        0.5320000000     
    H    5.0270000000       -0.0080000000        1.8050000000     
    H   -2.5360000000        2.7690000000       -0.9140000000     
    H   -2.0320000000        3.2300000000        0.7300000000     
    H   -0.8630000000        2.4770000000       -0.3820000000     
    H   -3.8700000000        0.2380000000        1.4560000000     
    H   -3.7830000000        2.0060000000        1.6460000000     
    H   -4.3680000000        1.3030000000        0.1190000000     
    H   -2.8490000000       -3.1000000000       -0.4280000000     

DM0.gesp

DM0.gesp


