--Link1--
%chk=molecule
#HF/6-31G* SCF=tight Test Pop=MK iop(6/33=2) iop(6/42=6) opt
# iop(6/50=1)

remark line goes here

0   1
    N   -1.4960000000        0.9080000000       -0.8610000000     
    C   -0.5640000000       -0.2260000000       -0.8260000000     
    C    0.3600000000       -0.1650000000       -2.0440000000     
    C   -0.4760000000       -0.2310000000       -3.3230000000     
    C    0.4480000000       -0.1690000000       -4.5410000000     
    C   -0.3880000000       -0.2350000000       -5.8200000000     
    N    0.4990000000       -0.1750000000       -6.9890000000     
    C    0.2720000000       -0.1600000000        0.4520000000     
    O    1.0100000000        1.0620000000        0.4760000000     
    C   -0.6520000000       -0.2220000000        1.6700000000     
    C    0.1710000000       -0.1570000000        2.9300000000     
    O    1.3740000000       -0.0700000000        2.8610000000     
    O   -0.4310000000       -0.1960000000        4.1290000000     
    C    0.3620000000       -0.1330000000        5.3430000000     
    C   -0.5610000000       -0.1950000000        6.5600000000     
    H   -1.9500000000        0.8830000000       -1.7620000000     
    H   -0.9340000000        1.7450000000       -0.8430000000     
    H   -1.1270000000       -1.1600000000       -0.8450000000     
    H    0.9230000000        0.7680000000       -2.0250000000     
    H    1.0510000000       -1.0070000000       -2.0180000000     
    H   -1.0390000000       -1.1640000000       -3.3410000000     
    H   -1.1680000000        0.6110000000       -3.3490000000     
    H    1.0110000000        0.7630000000       -4.5220000000     
    H    1.1390000000       -1.0110000000       -4.5150000000     
    H   -0.9510000000       -1.1680000000       -5.8380000000     
    H   -1.0800000000        0.6060000000       -5.8460000000     
    H   -0.0920000000       -0.2220000000       -7.8050000000     
    H    0.9190000000        0.7410000000       -6.9880000000     
    H    0.9630000000       -1.0030000000        0.4780000000     
    H    0.3620000000        1.7800000000        0.4520000000     
    H   -1.2150000000       -1.1550000000        1.6520000000     
    H   -1.3430000000        0.6190000000        1.6440000000     
    H    0.9250000000        0.7990000000        5.3610000000     
    H    1.0540000000       -0.9750000000        5.3690000000     
    H    0.0340000000       -0.1480000000        7.4720000000     
    H   -1.2530000000        0.6460000000        6.5350000000     
    H   -1.1240000000       -1.1280000000        6.5420000000     

LTA.gesp

LTA.gesp


